/*--------------------------------*- C++ -*----------------------------------*\
  =========                 |
  \\      /  F ield         | OpenFOAM: The Open Source CFD Toolbox
   \\    /   O peration     | Website:  https://openfoam.org
    \\  /    A nd           | Version:  7  
     \\/     M anipulation  |
\*---------------------------------------------------------------------------*/
FoamFile
{
    version     2.0;
    format      ascii;
    class       dictionary;
    object      topoSetDict;
}
// * * * * * * * * * * * * * * * * * * * * * * * * * * * * * * * * * * * * * //

actions
(

    // Get all faces from AMI in cellSet
    /*{
        name    AMI;
        type    faceSet;
        action  new;
        source  patchToFace;
        sourceInfo
        {
            name "ami01";
        }
    }*/

   // Create cellZone for moving cells
    {
        name    rotorCells;
        type    cellSet;
        action  new;
        source  boxToCell;
        sourceInfo
        {
            box (-0.106588 -0.002 -0.106584) (0.106602 0.0300003 0.106583);
        }
    }
    {
        name    rotorCellsZone;
        type    cellZoneSet;
        action  new;
        source  setToCellZone;
        sourceInfo
        {
            set     rotorCells;
        }
    }

);

// ************************************************************************* //
